
  Mrv2019 02012211363D          

 10 10  0  0  0  0            999 V2000
    1.4513    4.8823   -0.0087 C   0  0  0  0  0  0  0  0  0  0  0  0
    2.0663    3.6772   -0.0121 C   0  0  0  0  0  0  0  0  0  0  0  0
    3.5414    3.7073   -0.0210 C   0  0  0  0  0  0  0  0  0  0  0  0
    4.0350    3.2644    1.2396 O   0  0  0  0  0  0  0  0  0  0  0  0
    1.3563    2.4314    0.0128 C   0  0  0  0  0  0  0  0  0  0  0  0
   -0.0277   -0.0956    0.0291 C   0  0  0  0  0  0  0  0  0  0  0  0
   -0.7470    1.1045   -0.0419 C   0  0  0  0  0  0  0  0  0  0  0  0
   -0.0680    2.3373   -0.0510 C   0  0  0  0  0  0  0  0  0  0  0  0
    2.0408    1.1817    0.0965 C   0  0  0  0  0  0  0  0  0  0  0  0
    1.3700   -0.0545    0.1052 C   0  0  0  0  0  0  0  0  0  0  0  0
  1  2  2  0  0  0  0
  2  3  1  0  0  0  0
  3  4  1  0  0  0  0
  2  5  1  0  0  0  0
  6  7  1  0  0  0  0
  7  8  2  0  0  0  0
  9 10  1  0  0  0  0
  6 10  2  0  0  0  0
  8  5  1  0  0  0  0
  5  9  2  0  0  0  0
M  END
