
  Mrv2019 02012212323D          

  5  4  0  0  0  0            999 V2000
   -0.6468   -1.5944   -0.0612 C   0  0  0  0  0  0  0  0  0  0  0  0
    0.1410   -0.5126    0.0803 C   0  0  0  0  0  0  0  0  0  0  0  0
    1.5887   -0.5025    0.0161 C   0  0  0  0  0  0  0  0  0  0  0  0
    1.9994   -0.4233   -1.3443 O   0  0  0  0  0  0  0  0  0  0  0  0
   -0.1875   -2.9552   -0.2666 C   0  0  0  0  0  0  0  0  0  0  0  0
  1  2  2  0  0  0  0
  2  3  1  0  0  0  0
  3  4  1  0  0  0  0
  1  5  1  0  0  0  0
M  END
